LTspice 26.0.2 for Windows
Circuit: D:\HSB\Master_Thesis\5274929_Master_Thesis_Dixit_Golakiya\1_LT_Spice_Simulation\Capacitor_Measurement.net
Start Time: Tue May 19 10:36:39 2026
Options:abstol=1n reltol=0.01 vntol=1m noopiter
solver = Normal
Maximum thread count: 12
tnom = 27
temp = 27
method = trap
abstol = 1e-09
reltol = 0.01
volttol = 0.001
noOpIter = true
ERROR: Node u5:vslew is floating and connected to current source u5:GSLEW
ERROR: Node u6:vslew is floating and connected to current source u6:GSLEW

Direct Newton iteration for .op point skipped.
Starting Gmin stepping
Gmin stepping succeeded in finding the operating point.

Total elapsed time: 0.524 seconds.

Files loaded:
D:\HSB\Master_Thesis\5274929_Master_Thesis_Dixit_Golakiya\1_LT_Spice_Simulation\Capacitor_Measurement.net
D:\HSB\Master_Thesis\5274929_Master_Thesis_Dixit_Golakiya\1_LT_Spice_Simulation\lib\241.lib
D:\HSB\Master_Thesis\5274929_Master_Thesis_Dixit_Golakiya\1_LT_Spice_Simulation\lib\irl540ns.spi
D:\HSB\Master_Thesis\5274929_Master_Thesis_Dixit_Golakiya\1_LT_Spice_Simulation\lib\TLV354.LIB
D:\HSB\Master_Thesis\5274929_Master_Thesis_Dixit_Golakiya\1_LT_Spice_Simulation\lib\TMCS1108A3B.lib

